# nonstd
1/38=1,163=2,172=1/1;
2/12=2,17=6,18=5,40=1/2;
3/5=2,25=1,41=700000,116=1/1,2,3;
4/35=1/1;
5/5=2,35=1,38=5/2;
6/7=2,8=2,9=2,10=2,28=1,40=12,113=1,114=1,124=2103/1,12(1);
99/5=1,9=1/99;
5/5=2,7=1,13=1,35=1,38=1,48=100000/2;
6/7=2,8=2,9=2,10=2,28=1,40=3,113=1,114=1,124=2103/12(-1);
99/5=1,9=1/99;

Methylamine...rhf/am1

0 1
C
N   1   CN
H   1   CHa   2   NCHa
H   1   CHb   2   NCHb   3   alfa 0
H   1   CHb   2   NCHb   3  -alfa 0
H   2   NH    1   CNH    3   beta 0
H   2   NH    1   CNH    3  -beta 0

CN           1.4324
CHa          1.126 
CHb          1.1222
NH           1.0003
NCHa       114.2858
NCHb       109.0203
CNH        111.3121
alfa       120.8925
beta        60.921 

$nbo  $end
$del
  lewis  
  delete 1 element 1 9
$end

