#nonstd
1/38=1,163=2,172=1/1;
2/12=2,17=6,18=5,40=1/2;
3/5=4,6=6,7=1111,11=1,25=1,30=1,116=1/1,2,3;
4//1;
5/5=2,38=5/2;
6/7=2,8=2,9=2,10=2,28=1,40=12,113=1,114=1,124=2103/1,12(1);
99/5=1,9=1/99;
5/5=2,7=1,13=1,38=1,48=100000/2;
6/7=2,8=2,9=2,10=2,28=1,40=3,113=1,114=1,124=2103/12(-1);
99/5=1,9=1/99;

Butadiyne...rhf/6-311++g**

0  1
H     0.000000    0.000000    2.933869
C     0.000000    0.000000    1.878441
C     0.000000    0.000000    0.693074
C     0.000000    0.000000   -0.693074
C     0.000000    0.000000   -1.878441
H     0.000000    0.000000   -2.933869

$nbo $end
$del lewis $end

