# nonstd
1/38=1,163=2/1;
2/12=2,17=6,18=5,40=1/2;
3/5=5,11=1,16=1,25=1,30=1,116=1/1,2,3;
4//1;
5/5=2,38=5/2;
6/7=2,8=2,9=2,10=2,28=1,40=12,113=1,114=1,124=2103/1,12(1);
99/5=1,9=1/99;
5/5=2,7=1,13=1,38=1,48=100000/2;
6/7=2,8=2,9=2,10=2,28=1,40=3,113=1,114=1,124=2103/12(-1);
99/5=1,9=1/99;

Methylamine...rhf/3-21g//idealized geometry

0 1
C
N   1   1.47
H   1   1.09   2   109.4712
H   1   1.09   2   109.4712   3   120. 0
H   1   1.09   2   109.4712   3   240. 0
H   2   1.01   1   109.4712   3    60. 0
H   2   1.01   1   109.4712   3   300. 0

$nbo  $end
$del  lewis  delete 1 element 3 11  $end

