#nonstd
1/18=40,29=20000,38=1,163=2,172=1/1,14;
2/12=2,17=6,18=5,29=3,40=1/2;
3/5=5,11=1,25=1,30=1,116=1/1,2,3;
4//1;
5/5=2,38=5/2;
6/7=2,8=2,9=2,10=2,28=1,40=12,113=1,114=1,124=2103/1,12(1);
99//99;
5/5=2,7=1,13=1,38=1,48=100000/2;
6/7=2,8=2,9=2,10=2,28=1,40=3,113=1,114=1,124=2103/12(-1);
1/18=40/14(2);
2/29=3/2;
99//99;
2/29=3/2;
3/5=5,11=1,25=1,30=1,116=1/1,2,3;
4/5=5,16=3,69=1/1;
5/5=2,38=5/2;
6/7=2,8=2,9=2,10=2,28=1,40=12,113=1,114=1,124=2103/1,12(1);
99/9=1/99;
5/5=2,7=1,13=1,38=1,48=100000/2;
6/7=2,8=2,9=2,10=2,28=1,40=3,113=1,114=1,124=2103/12(-1);
1/18=40/14(-8);
2/29=3/2;
6/7=2,8=2,9=2,10=2,19=2,28=1,40=12,113=1,114=1,124=2103/1,12;
99/9=1/99;

Eclipsed Methylamine...RHF/3-21G reoptimization with LEWIS deletions

0 1
C
N   1   CN
H   1   CHa   2   NCHa
H   1   CHb   2   NCHb   3   alfa 0
H   1   CHb   2   NCHb   3  -alfa 0
H   2   NH    1   CNH    3   beta 0
H   2   NH    1   CNH    3  -beta 0

CN           1.4719
CHa          1.0839
CHb          1.0851
NH           0.9995
NCHa       111.2322
NCHb       111.1628
CNH        115.4575
alfa       120.2608
beta       112.7337

$nbo  print=0  nbosum  $end   ! Turn off all printing but NBO Summary
$choose                       ! Fix Lewis structure for all geometries
    lone 2 1 end
    bond s 1 2 s 1 3 s 1 4 s 1 5 s 2 6 s 2 7 end
$end
$del  lewis  $end             ! Perform deletions analysis

