# nonstd
1/29=20000,38=1,163=2,172=1/1,14;
2/12=2,15=1,17=6,18=5,29=3,40=1/2;
3/5=1,6=6,7=1,11=1,25=1,30=1,116=1/1,2,3;
4//1;
5/5=2,38=5/2;
6/7=2,8=2,9=2,10=2,28=1,40=12,113=1,114=1,124=2103/1,12(1);
99//99;
5/5=2,7=1,13=1,38=1,48=100000/2;
6/7=2,8=2,9=2,10=2,28=1,40=3,113=1,114=1,124=2103/12(-1);
1//14(2);
2/15=1,29=3/2;
99//99;
2/15=1,29=3/2;
3/5=1,6=6,7=1,11=1,25=1,30=1,116=1/1,2,3;
4/5=5,16=3,69=1/1;
5/5=2,38=5/2;
6/7=2,8=2,9=2,10=2,28=1,40=12,113=1,114=1,124=2103/1,12(1);
99/9=1/99;
5/5=2,7=1,13=1,38=1,48=100000/2;
6/7=2,8=2,9=2,10=2,28=1,40=3,113=1,114=1,124=2103/12(-1);
1//14(-7);
2/15=1,29=3/2;
6/7=2,8=2,9=2,10=2,19=2,28=1,40=12,113=1,114=1,124=2103/1,12;
99/9=1/99;

RHF/6-31G* geometry optimization of cis-1,2-difluoroethene (no CF*s)

0 1
C
C  1  CC
F  1  CF  2  CCF
F  2  CF  1  CCF  3    0. 0
H  1  CH  2  CCH  3  180. 0
H  2  CH  1  CCH  4  180. 0

CC     1.34
CF     1.33
CH     1.08
CCF  120.
CCH  120.

$nbo  $end
$choose
  lone 3 3 4 3 end
  bond d 1 2 s 1 3 s 1 5 s 2 4 s 2 6 end
$end
$del  delete 2 orbitals 19 21  $end

