! rhf 3-21g nbo
* xyz 0 1
C       0.052902    0.711852    0.000000
N       0.052902   -0.758148    0.000000
H      -0.974760    1.075185    0.000000
H       0.566733    1.075185    0.889981
H       0.566733    1.075185   -0.889981
H      -0.423217   -1.094815   -0.824662
H      -0.423217   -1.094815    0.824662
*

%nbo
nbokeylist = "$nbo nrt $end"
delkeylist = "$del  lewis  delete 1 element 3 11  $end"
end
